[TITLE]

[JUNCTIONS]
;ID              	Elev        	Demand      	Pattern
HY1             	1035.0	0.0   	       
HY11            	1041.0	0.0   	       
HY12            	1033.0	0.0   	       
HY14            	1023.0	0.0   	       
HY17            	1034.0	0.0   	       
HY19            	1018.5	0.0   	       
HY2             	1017.0	0.0   	       
HY22            	1022.0	0.0   	       
HY24            	1028.0	0.0   	       
HY27            	1026.5	0.0   	       
HY28            	1025.0	0.0   	       
HY29            	1025.0	0.0   	       
HY31            	1045.0	0.0   	       
HY33            	1054.0	0.0   	       
HY34            	1055.0	0.0   	       
HY35            	1051.0	0.0   	       
HY37            	1035.0	0.0   	       
HY38            	1030.0	0.0   	       
HY4             	1017.0	0.0   	       
HY40            	1028.0	0.0   	       
HY41            	1033.0	0.0   	       
HY42            	1038.0	0.0   	       
HY43            	1038.0	0.0   	       
HY44            	1037.0	0.0   	       
HY45            	1023.0	0.0   	       
HY46            	1037.0	0.0   	       
HY47            	1039.0	0.0   	       
HY48            	1049.0	0.0   	       
HY49            	1038.0	0.0   	       
HY50            	1030.0	0.0   	       
HY51            	1029.0	0.0   	       
HY52            	1032.0	0.0   	       
HY53            	1040.0	0.0   	       
HY54            	1039.0	0.0   	       
HY55            	1024.0	0.0   	       
HY56            	1026.0	0.0   	       
HY57            	1035.0	0.0   	       
HY58            	1055.0	0.0   	       
HY59            	1054.0	0.0   	       
HY6             	1027.0	0.0   	       
HY60            	1047.0	0.0   	       
HY61            	1039.0	0.0   	       
HY62            	1039.0	0.0   	       
HY63            	1028.0	0.0   	       
HY64            	1037.0	0.0   	       
HY65            	1032.0	0.0   	       
HY66            	1030.0	0.0   	       
HY67            	1044.0	0.0   	       
HY68            	1042.5	0.0   	       
HY69            	1021.0	0.0   	       
HY7             	1033.0	0.0   	       
HY9             	1052.0	0.0   	       
IN0             	1036.0	0.0   	3      
IN10            	1036.0	0.0   	3      
IN1017          	1038.0	0.0   	2      
IN1024          	1030.0	0.0   	2      
IN1025          	1030.0	0.0   	2      
IN1028          	1030.0	0.0   	2      
IN1029          	1030.0	0.0   	2      
IN1030          	1030.0	0.0   	2      
IN1031          	1030.0	0.0   	2      
IN1032          	1035.0	0.0   	2      
IN1033          	1035.0	0.0   	2      
IN1036          	1033.0	0.0   	2      
IN1037          	1032.0	0.0   	2      
IN1038          	1031.0	0.0   	2      
IN1039          	1030.0	0.0   	2      
IN104           	1016.0	0.0   	2      
IN1040          	1030.0	0.0   	2      
IN1044          	1031.0	0.0   	2      
IN1047          	1031.0	0.0   	2      
IN1048          	1033.0	0.0   	2      
IN1049          	1035.0	0.0   	2      
IN1050          	1038.0	0.0   	2      
IN1051          	1039.0	0.0   	2      
IN1062          	1030.0	0.0   	2      
IN1066          	1030.0	0.0   	2      
IN1068          	1037.0	0.0   	2      
IN1069          	1035.0	0.0   	2      
IN1070          	1032.0	0.0   	2      
IN1073          	1031.0	0.0   	2      
IN1076          	1030.0	0.0   	2      
IN1077          	1030.0	0.0   	2      
IN1080          	1029.0	0.0   	2      
IN1081          	1029.0	0.0   	2      
IN1084          	1030.0	0.0   	2      
IN1085          	1030.0	0.0   	2      
IN1086          	1030.0	0.0   	2      
IN1089          	1031.0	0.0   	2      
IN1090          	1032.0	0.0   	2      
IN1093          	1035.0	0.0   	2      
IN1094          	1037.0	0.0   	2      
IN1097          	1038.0	0.0   	2      
IN1098          	1038.0	0.0   	2      
IN1099          	1039.0	0.0   	2      
IN110           	1032.0	0.0   	2      
IN1102          	1031.0	0.0   	2      
IN1105          	1032.0	0.0   	2      
IN1106          	1035.0	0.0   	2      
IN1107          	1039.0	0.0   	2      
IN1108          	1039.0	0.0   	2      
IN1109          	1041.0	0.0   	2      
IN1110          	1041.0	0.0   	2      
IN1111          	1041.0	0.0   	2      
IN1114          	1040.0	0.0   	2      
IN1115          	1038.0	0.0   	2      
IN1116          	1036.0	0.0   	2      
IN1120          	1040.0	0.0   	2      
IN1121          	1041.0	0.0   	2      
IN1122          	1043.0	0.0   	2      
IN1123          	1045.0	0.0   	2      
IN1124          	1045.0	0.0   	2      
IN1127          	1029.0	0.0   	2      
IN1142          	1050.0	0.0   	2      
IN1143          	1047.0	0.0   	2      
IN1146          	1045.0	0.0   	2      
IN1147          	1042.0	0.0   	2      
IN1148          	1040.0	0.0   	2      
IN1149          	1040.0	0.0   	2      
IN1151          	1043.0	0.0   	2      
IN1154          	1046.0	0.0   	2      
IN1155          	1047.0	0.0   	2      
IN1156          	1055.0	0.0   	2      
IN1159          	1054.0	0.0   	2      
IN1162          	1052.0	0.0   	2      
IN1163          	1050.0	0.0   	2      
IN1166          	1043.0	0.0   	2      
IN1171          	1046.0	0.0   	2      
IN1172          	1047.0	0.0   	2      
IN1173          	1049.0	0.0   	2      
IN1176          	1050.0	0.0   	2      
IN1179          	1052.0	0.0   	2      
IN118           	1038.0	0.0   	2      
IN1184          	1052.0	0.0   	2      
IN1187          	1051.0	0.0   	2      
IN1188          	1051.0	0.0   	2      
IN1189          	1051.0	0.0   	2      
IN1192          	1050.0	0.0   	2      
IN1193          	1050.0	0.0   	2      
IN1194          	1049.0	0.0   	2      
IN1195          	1043.0	0.0   	2      
IN1196          	1042.0	0.0   	2      
IN1199          	1041.0	0.0   	2      
IN120           	1037.0	0.0   	2      
IN1200          	1040.0	0.0   	2      
IN1201          	1039.0	0.0   	2      
IN1204          	1037.0	0.0   	2      
IN1205          	1036.0	0.0   	2      
IN1208          	1033.0	0.0   	2      
IN1209          	1032.0	0.0   	2      
IN1210          	1029.0	0.0   	2      
IN1213          	1026.0	0.0   	2      
IN1214          	1026.0	0.0   	2      
IN1217          	1025.0	0.0   	2      
IN1218          	1024.0	0.0   	2      
IN122           	1038.0	0.0   	2      
IN1221          	1023.0	0.0   	2      
IN1224          	1022.0	0.0   	2      
IN1225          	1024.0	0.0   	2      
IN1228          	1025.0	0.0   	2      
IN1229          	1026.0	0.0   	2      
IN1230          	1027.0	0.0   	2      
IN1251          	1039.0	0.0   	2      
IN1252          	1030.0	0.0   	2      
IN1253          	1030.0	0.0   	2      
IN1256          	1031.0	0.0   	2      
IN1257          	1031.0	0.0   	2      
IN1260          	1031.0	0.0   	2      
IN1261          	1032.0	0.0   	2      
IN1262          	1032.0	0.0   	2      
IN1265          	1032.0	0.0   	2      
IN1266          	1055.0	0.0   	2      
IN1267          	1054.0	0.0   	2      
IN1268          	1054.0	0.0   	2      
IN1269          	1053.0	0.0   	2      
IN1272          	1051.0	0.0   	2      
IN1273          	1051.0	0.0   	2      
IN1274          	1051.0	0.0   	2      
IN1277          	1053.0	0.0   	2      
IN1278          	1053.0	0.0   	2      
IN1279          	1054.0	0.0   	2      
IN1280          	1054.0	0.0   	2      
IN1281          	1054.0	0.0   	2      
IN1284          	1031.0	0.0   	2      
IN1285          	1031.0	0.0   	2      
IN1288          	1031.0	0.0   	2      
IN1289          	1032.0	0.0   	2      
IN1290          	1032.0	0.0   	2      
IN1291          	1033.0	0.0   	2      
IN1294          	1033.0	0.0   	2      
IN1295          	1035.0	0.0   	2      
IN1296          	1035.0	0.0   	2      
IN1297          	1035.0	0.0   	2      
IN1303          	1037.0	0.0   	2      
IN1308          	1039.0	0.0   	2      
IN1309          	1040.0	0.0   	2      
IN1312          	1046.0	0.0   	2      
IN1313          	1047.0	0.0   	2      
IN1316          	1049.0	0.0   	2      
IN1318          	1038.0	0.0   	2      
IN1320          	1035.0	0.0   	2      
IN1321          	1040.0	0.0   	2      
IN1324          	1040.0	0.0   	2      
IN1325          	1040.0	0.0   	2      
IN1328          	1040.0	0.0   	2      
IN1330          	1020.0	0.0   	2      
IN1331          	1020.0	0.0   	2      
IN1332          	1020.0	0.0   	2      
IN1333          	1020.0	0.0   	2      
IN1336          	1020.0	0.0   	2      
IN1341          	1020.0	0.0   	2      
IN1342          	1020.0	0.0   	2      
IN1344          	1024.0	0.0   	2      
IN1349          	1024.0	0.0   	2      
IN1352          	1025.0	0.0   	2      
IN1366          	1027.0	0.0   	2      
IN1371          	1027.0	0.0   	2      
IN1384          	1045.0	0.0   	2      
IN1389          	1040.0	0.0   	2      
IN1390          	1040.0	0.0   	2      
IN1391          	1040.0	0.0   	2      
IN1392          	1041.0	0.0   	2      
IN1393          	1043.0	0.0   	2      
IN1394          	1043.0	0.0   	2      
IN1395          	1044.0	0.0   	2      
IN1396          	1044.0	0.0   	2      
IN1397          	1045.0	0.0   	2      
IN1398          	1045.0	0.0   	2      
IN1399          	1044.0	0.0   	2      
IN140           	1030.0	0.0   	2      
IN1400          	1043.0	0.0   	2      
IN1401          	1043.0	0.0   	2      
IN1402          	1042.0	0.0   	2      
IN1403          	1040.0	0.0   	2      
IN1404          	1040.0	0.0   	2      
IN1407          	1025.0	0.0   	       
IN1417          	1054.0	0.0   	2      
IN1418          	1050.0	0.0   	2      
IN1427          	1033.0	0.0   	2      
IN1430          	1028.0	0.0   	2      
IN1442          	1018.0	0.0   	       
IN1451          	1020.0	0.0   	       
IN1456          	1017.0	0.0   	       
IN1461          	1014.0	0.0   	       
IN1466          	1017.0	0.0   	       
IN1467          	1017.0	0.0   	       
IN1470          	1036.0	0.0   	       
IN1471          	1035.0	0.0   	       
IN1487          	1022.0	0.0   	       
IN1491          	1026.0	0.0   	2      
IN1495          	1035.0	0.0   	       
IN150           	1036.0	0.0   	2      
IN1500          	1033.0	0.0   	       
IN1501          	1050.0	0.0   	       
IN1502          	1052.0	0.0   	       
IN1503          	1023.0	0.0   	       
IN1504          	1023.0	0.0   	       
IN1505          	1030.5	0.0   	       
IN1506          	1034.0	0.0   	       
IN1507          	1029.0	0.0   	       
IN1508          	1018.5	0.0   	       
IN1509          	1014.0	0.0   	       
IN1510          	1016.5	0.0   	       
IN1511          	1028.0	0.0   	       
IN1512          	1026.5	0.0   	       
IN1513          	1025.0	0.0   	       
IN1514          	1050.0	0.0   	       
IN1515          	1054.0	0.0   	       
IN1516          	1055.0	0.0   	       
IN1517          	1051.0	0.0   	       
IN1518          	1028.0	0.0   	       
IN1519          	1023.0	0.0   	       
IN152           	1038.0	0.0   	2      
IN1520          	1042.5	0.0   	       
IN1521          	1021.0	0.0   	       
IN1522          	1035.0	0.0   	       
IN1530          	1030.0	0.0   	       
IN1531          	1030.0	0.0   	       
IN1532          	1030.0	0.0   	       
IN1534          	1030.0	0.0   	       
IN1535          	1030.0	0.0   	       
IN1536          	1031.0	0.0   	       
IN1537          	1035.0	0.0   	       
IN1538          	1036.0	0.0   	       
IN1539          	1037.0	0.0   	       
IN1540          	1036.0	0.0   	       
IN1541          	1034.0	0.0   	       
IN1542          	1033.0	0.0   	       
IN1543          	1029.0	0.0   	       
IN1544          	1024.0	0.0   	       
IN1545          	1020.0	0.0   	       
IN1546          	1016.0	0.0   	       
IN1547          	1015.0	0.0   	       
IN1548          	1015.0	0.0   	       
IN1549          	1020.0	0.0   	       
IN1550          	1019.0	0.0   	       
IN1551          	1022.0	0.0   	       
IN1552          	1020.0	0.0   	       
IN16            	1037.0	0.0   	3      
IN1601          	1032.0	0.0   	       
IN1602          	1036.0	0.0   	       
IN1603          	1037.0	0.0   	       
IN1604          	1039.0	0.0   	       
IN1605          	1038.0	0.0   	       
IN1606          	1038.0	0.0   	       
IN1607          	1038.0	0.0   	       
IN1608          	1037.0	0.0   	       
IN1609          	1035.0	0.0   	       
IN1610          	1033.0	0.0   	       
IN1611          	1026.0	0.0   	       
IN1612          	1024.0	0.0   	       
IN1613          	1021.0	0.0   	       
IN1614          	1020.0	0.0   	       
IN1615          	1019.0	0.0   	       
IN162           	1040.0	0.0   	2      
IN164           	1039.0	0.0   	2      
IN1640          	1040.0	0.0   	       
IN1641          	1040.0	0.0   	       
IN1642          	1038.0	0.0   	       
IN1643          	1034.0	0.0   	       
IN1644          	1031.0	0.0   	       
IN1645          	1028.0	0.0   	       
IN1646          	1025.0	0.0   	       
IN1647          	1022.0	0.0   	       
IN1648          	1023.0	0.0   	       
IN1665          	1041.0	0.0   	       
IN1666          	1041.0	0.0   	       
IN1667          	1022.0	0.0   	       
IN1668          	1046.0	0.0   	       
IN1669          	1028.0	0.0   	       
IN1670          	1041.0	0.0   	       
IN1671          	1040.0	0.0   	       
IN1672          	1038.0	0.0   	       
IN1673          	1036.0	0.0   	       
IN1674          	1033.0	0.0   	       
IN1675          	1026.0	0.0   	       
IN1676          	1023.0	0.0   	       
IN1677          	1022.0	0.0   	       
IN1678          	1021.0	0.0   	       
IN1679          	1020.0	0.0   	       
IN1680          	1041.0	0.0   	       
IN1681          	1040.0	0.0   	       
IN1682          	1039.0	0.0   	       
IN1683          	1036.0	0.0   	       
IN1684          	1031.0	0.0   	       
IN1685          	1027.0	0.0   	       
IN1686          	1024.0	0.0   	       
IN1687          	1023.0	0.0   	       
IN1688          	1042.0	0.0   	       
IN1689          	1041.0	0.0   	       
IN1690          	1038.0	0.0   	       
IN1691          	1035.0	0.0   	       
IN1692          	1032.0	0.0   	       
IN1693          	1029.0	0.0   	       
IN1694          	1027.0	0.0   	       
IN1695          	1026.0	0.0   	       
IN1696          	1045.0	0.0   	       
IN1697          	1044.0	0.0   	       
IN1698          	1040.0	0.0   	       
IN1699          	1037.0	0.0   	       
IN1700          	1033.0	0.0   	       
IN1701          	1031.0	0.0   	       
IN1702          	1028.0	0.0   	       
IN1703          	1028.0	0.0   	       
IN172           	1040.0	0.0   	2      
IN174           	1040.0	0.0   	2      
IN176           	1040.0	0.0   	2      
IN178           	1040.0	0.0   	2      
IN2             	1038.0	0.0   	3      
IN246           	1041.0	0.0   	2      
IN250           	1040.0	0.0   	2      
IN255           	1039.0	0.0   	2      
IN265           	1031.0	0.0   	2      
IN311           	1027.0	0.0   	2      
IN316           	1027.0	0.0   	2      
IN321           	1029.0	0.0   	2      
IN326           	1032.0	0.0   	2      
IN331           	1036.0	0.0   	2      
IN336           	1039.0	0.0   	2      
IN34            	1036.0	0.0   	2      
IN341           	1041.0	0.0   	2      
IN346           	1044.0	0.0   	2      
IN350           	1044.0	0.0   	2      
IN352           	1045.0	0.0   	2      
IN355           	1044.0	0.0   	2      
IN358           	1043.0	0.0   	2      
IN361           	1037.0	0.0   	2      
IN364           	1033.0	0.0   	2      
IN367           	1030.0	0.0   	2      
IN370           	1028.0	0.0   	2      
IN373           	1027.0	0.0   	2      
IN4             	1038.0	0.0   	3      
IN412           	1027.0	0.0   	2      
IN414           	1030.0	0.0   	2      
IN417           	1033.0	0.0   	2      
IN423           	1035.0	0.0   	2      
IN427           	1035.0	0.0   	2      
IN431           	1033.0	0.0   	2      
IN435           	1031.0	0.0   	2      
IN44            	1037.0	0.0   	2      
IN441           	1015.0	0.0   	2      
IN447           	1015.0	0.0   	2      
IN449           	1018.0	0.0   	2      
IN455           	1022.0	0.0   	2      
IN457           	1033.0	0.0   	2      
IN461           	1028.0	0.0   	5      
IN463           	1028.0	0.0   	5      
IN467           	1025.0	0.0   	2      
IN485           	1027.0	0.0   	5      
IN489           	1029.0	0.0   	5      
IN502           	1025.0	0.0   	2      
IN504           	1025.0	0.0   	2      
IN508           	1025.0	0.0   	2      
IN510           	1025.0	0.0   	5      
IN512           	1031.0	0.0   	5      
IN52            	1035.0	0.0   	2      
IN58            	1027.0	0.0   	2      
IN6             	1038.0	0.0   	3      
IN64            	1037.0	0.0   	2      
IN68            	1036.0	0.0   	2      
IN72            	1035.0	0.0   	2      
IN726           	1030.0	0.0   	2      
IN74            	1033.0	0.0   	2      
IN8             	1038.0	0.0   	3      
IN80            	1024.0	0.0   	2      
IN824           	1031.0	0.0   	5      
IN825           	1030.0	0.0   	5      
IN828           	1029.0	0.0   	5      
IN831           	1029.0	0.0   	5      
IN832           	1028.0	0.0   	5      
IN835           	1033.0	0.0   	3      
IN840           	1038.0	0.0   	3      
IN845           	1038.0	0.0   	3      
IN848           	1038.0	0.0   	3      
IN849           	1038.0	0.0   	3      
IN852           	1037.0	0.0   	3      
IN853           	1037.0	0.0   	3      
IN858           	1029.0	0.0   	3      
IN859           	1029.0	0.0   	3      
IN862           	1024.0	0.0   	3      
IN864           	1022.0	0.0   	3      
IN865           	1020.0	0.0   	3      
IN869           	1037.0	0.0   	2      
IN872           	1036.0	0.0   	2      
IN875           	1032.0	0.0   	2      
IN876           	1028.0	0.0   	2      
IN877           	1028.0	0.0   	2      
IN878           	1028.0	0.0   	2      
IN881           	1028.0	0.0   	2      
IN882           	1027.0	0.0   	2      
IN883           	1027.0	0.0   	2      
IN886           	1027.0	0.0   	2      
IN887           	1027.0	0.0   	2      
IN890           	1028.0	0.0   	2      
IN891           	1030.0	0.0   	2      
IN892           	1030.0	0.0   	2      
IN893           	1028.0	0.0   	2      
IN896           	1027.0	0.0   	2      
IN897           	1026.0	0.0   	2      
IN898           	1026.0	0.0   	2      
IN90            	1020.0	0.0   	2      
IN901           	1025.0	0.0   	2      
IN904           	1025.0	0.0   	2      
IN908           	1025.0	0.0   	2      
IN911           	1025.0	0.0   	2      
IN914           	1025.0	0.0   	2      
IN915           	1025.0	0.0   	2      
IN916           	1025.0	0.0   	2      
IN917           	1027.0	0.0   	2      
IN920           	1028.0	0.0   	2      
IN934           	1039.0	0.0   	2      
IN935           	1040.0	0.0   	2      
IN936           	1040.0	0.0   	2      
IN937           	1040.0	0.0   	2      
IN938           	1040.0	0.0   	2      
IN939           	1040.0	0.0   	2      
IN942           	1040.0	0.0   	2      
IN943           	1039.0	0.0   	2      
IN944           	1039.0	0.0   	2      
IN945           	1038.0	0.0   	2      
IN948           	1037.0	0.0   	2      
IN949           	1035.0	0.0   	2      
IN953           	1032.0	0.0   	2      
IN954           	1029.0	0.0   	2      
IN957           	1025.0	0.0   	2      
IN958           	1024.0	0.0   	2      
IN961           	1022.0	0.0   	2      
IN964           	1027.0	0.0   	2      
IN973           	1040.0	0.0   	2      
IN974           	1040.0	0.0   	2      
IN978           	1039.0	0.0   	2      
IN98            	1018.0	0.0   	2      
IN981           	1038.0	0.0   	2      
IN985           	1028.0	0.0   	2      
IN986           	1035.0	0.0   	2      
IN995           	1041.0	0.0   	2      
IN996           	1044.0	0.0   	2      
PumpStation     	1035.0	0.0   	       
TN1             	1036.0	3.54166668	3      
TN101           	1018.0	0.49999998	2      
TN103           	1017.0	0.25000002	2      
TN105           	1016.0	0.25000002	2      
TN107           	1016.0	0.12499998	2      
TN109           	1015.0	0.49999998	2      
TN11            	1036.0	9.11805558	3      
TN111           	1035.0	0.12499998	2      
TN113           	1032.0	0.375 	2      
TN115           	1037.0	0.62500002	2      
TN117           	1036.0	0.375 	2      
TN119           	1038.0	0.62500002	2      
TN121           	1037.0	0.12499998	2      
TN123           	1038.0	0.49999998	2      
TN125           	1023.0	0.49999998	2      
TN127           	1024.0	0.25000002	2      
TN129           	1025.0	0.49999998	2      
TN13            	1038.0	0.54444444	3      
TN131           	1024.0	0.75  	2      
TN133           	1025.0	0.62500002	2      
TN135           	1027.0	0.49999998	2      
TN137           	1027.0	0.49999998	2      
TN139           	1028.0	0.49999998	2      
TN141           	1029.0	0.25000002	2      
TN143           	1030.0	0.12499998	2      
TN145           	1035.0	0.25000002	2      
TN147           	1036.0	0.375 	2      
TN149           	1031.0	0.75  	2      
TN15            	1038.0	5.53680558	3      
TN151           	1037.0	0.75  	2      
TN1523          	1053.0	1.11111111	5      
TN1524          	1027.0	1.11111111	5      
TN1525          	1025.0	1.11111111	5      
TN1526          	1033.0	2.44444444	1      
TN1527          	1030.0	0.44444444	2      
TN1528          	1030.0	0.22222222	2      
TN1529          	1031.0	0.33333333	2      
TN153           	1038.0	0.75  	2      
TN1533          	1025.0	9.81944442	3      
TN155           	1038.0	0.62500002	2      
TN1553          	1031.0	0.55555556	2      
TN1554          	1032.0	0.55555556	2      
TN1555          	1030.0	0.44444444	2      
TN1556          	1032.0	0.11111111	2      
TN1557          	1035.0	0.22222222	2      
TN1558          	1036.0	0.22222222	2      
TN1559          	1034.0	0.11111111	2      
TN1560          	1035.0	0.33333333	2      
TN1561          	1037.0	0.11111111	2      
TN1562          	1037.0	0.11111111	2      
TN1563          	1036.0	0.44444444	2      
TN1564          	1037.0	0.22222222	2      
TN1565          	1037.0	0.66666667	2      
TN1566          	1037.0	0.44444444	2      
TN1567          	1036.0	0.55555556	2      
TN1568          	1037.0	0.22222222	2      
TN1569          	1036.0	0.66666667	2      
TN157           	1039.0	0.25000002	2      
TN1570          	1036.0	0.22222222	2      
TN1571          	1037.0	0.44444444	2      
TN1572          	1035.0	0.66666667	2      
TN1573          	1035.0	0.22222222	2      
TN1574          	1035.0	0.33333333	2      
TN1575          	1035.0	0.22222222	2      
TN1576          	1034.0	0.44444444	2      
TN1577          	1033.0	0.33333333	2      
TN1578          	1032.0	0.11111111	2      
TN1579          	1032.0	0.66666667	2      
TN1580          	1031.0	0.33333333	2      
TN1581          	1031.0	0.55555556	2      
TN1582          	1027.0	0.44444444	2      
TN1583          	1029.0	0.55555556	2      
TN1584          	1028.0	0.11111111	2      
TN1585          	1025.0	0.55555556	2      
TN1586          	1024.0	0.44444444	2      
TN1587          	1024.0	0.33333333	2      
TN1588          	1022.0	0.66666667	2      
TN1589          	1022.0	0.66666667	2      
TN159           	1037.0	0.375 	2      
TN1590          	1020.0	0.22222222	2      
TN1591          	1020.0	0.22222222	2      
TN1592          	1017.0	0.55555556	2      
TN1593          	1018.0	0.44444444	2      
TN1594          	1016.0	0.22222222	2      
TN1595          	1016.0	0.55555556	2      
TN1596          	1016.0	0.11111111	2      
TN1597          	1016.0	0.44444444	2      
TN1598          	1015.0	0.44444444	2      
TN1599          	1015.0	0.33333333	2      
TN1600          	1015.0	0.55555556	2      
TN161           	1039.0	0.25000002	2      
TN1616          	1033.0	0.33333333	2      
TN1617          	1036.0	0.11111111	2      
TN1618          	1037.0	0.33333333	2      
TN1619          	1037.0	0.55555556	2      
TN1620          	1038.0	0.11111111	2      
TN1621          	1038.0	0.55555556	2      
TN1622          	1038.0	0.44444444	2      
TN1623          	1038.0	0.555555556	2      
TN1624          	1038.0	0.11111111	2      
TN1625          	1037.0	0.33333333	2      
TN1626          	1037.0	0.11111111	2      
TN1627          	1036.0	0.22222222	2      
TN1628          	1035.0	0.55555556	2      
TN1629          	1034.0	0.11111111	2      
TN163           	1040.0	0.62500002	2      
TN1630          	1033.0	0.55555556	2      
TN1631          	1027.0	0.22222222	2      
TN1632          	1025.0	0.44444444	2      
TN1633          	1024.0	0.33333333	2      
TN1634          	1023.0	0.55555556	2      
TN1635          	1021.0	0.11111111	2      
TN1636          	1020.0	0.22222222	2      
TN1637          	1019.0	0.11111111	2      
TN1638          	1019.0	0.22222222	2      
TN1639          	1019.0	0.11111111	2      
TN1649          	1040.0	0.33333333	2      
TN165           	1039.0	0.75  	2      
TN1650          	1039.0	0.33333333	2      
TN1651          	1039.0	0.66666667	2      
TN1652          	1038.0	0.22222222	2      
TN1653          	1037.0	0.55555556	2      
TN1654          	1034.0	0.66666667	2      
TN1655          	1032.0	0.66666667	2      
TN1656          	1031.0	0.11111111	2      
TN1657          	1028.0	0.44444444	2      
TN1658          	1027.0	0.44444444	2      
TN1659          	1025.0	0.55555556	2      
TN166           	1040.0	0.25000002	2      
TN1660          	1024.0	0.66666667	2      
TN1661          	1023.0	0.11111111	2      
TN1662          	1022.0	0.11111111	2      
TN1663          	1021.0	0.11111111	2      
TN1664          	1021.0	0.66666667	2      
TN167           	1040.0	0.375 	2      
TN169           	1040.0	0.75  	2      
TN17            	1037.0	3.25694442	3      
TN170           	1040.0	0.62500002	2      
TN1704          	1041.0	0.22222222	       
TN1705          	1041.0	0.33333333	       
TN1706          	1041.0	0.66666667	       
TN1707          	1041.0	0.22222222	       
TN1708          	1040.0	0.33333333	       
TN1709          	1040.0	0.33333333	       
TN171           	1040.0	0.62500002	2      
TN1710          	1040.0	0.55555556	       
TN1711          	1040.0	0.22222222	       
TN1712          	1039.0	0.55555556	       
TN1713          	1038.0	0.44444444	       
TN1714          	1038.0	0.66666667	       
TN1715          	1038.0	0.33333333	       
TN1716          	1037.0	0.22222222	       
TN1717          	1035.0	0.33333333	       
TN1718          	1036.0	0.33333333	       
TN1719          	1035.0	0.22222222	       
TN1720          	1034.0	0.55555556	       
TN1721          	1032.0	0.66666667	       
TN1722          	1034.0	0.22222222	       
TN1723          	1027.0	0.44444444	       
TN1724          	1030.0	0.44444444	       
TN1725          	1025.0	0.55555556	       
TN1726          	1026.0	0.44444444	       
TN1727          	1024.0	0.55555556	       
TN1728          	1024.0	0.22222222	       
TN1729          	1023.0	0.44444444	       
TN173           	1040.0	0.75  	2      
TN1730          	1022.0	0.66666667	       
TN1731          	1021.0	0.44444444	       
TN1732          	1022.0	0.66666667	       
TN1733          	1021.0	0.44444444	       
TN1734          	1021.0	0.44444444	       
TN1735          	1020.0	0.33333333	       
TN1736          	1020.0	0.44444444	       
TN1737          	1020.0	0.55555556	       
TN1738          	1020.0	0.66666667	       
TN1739          	1041.0	0.44444444	       
TN1740          	1041.0	0.22222222	       
TN1741          	1041.0	0.55555556	       
TN1742          	1041.0	0.44444444	       
TN1743          	1040.0	0.22222222	       
TN1744          	1039.0	0.11111111	       
TN1745          	1040.0	0.22222222	       
TN1746          	1040.0	0.66666667	       
TN1747          	1039.0	0.44444444	       
TN1748          	1038.0	0.33333333	       
TN1749          	1039.0	0.55555556	       
TN175           	1040.0	0.375 	2      
TN1750          	1038.0	0.66666667	       
TN1751          	1037.0	0.22222222	       
TN1752          	1036.0	0.22222222	       
TN1753          	1036.0	0.11111111	       
TN1754          	1035.0	0.66666667	       
TN1755          	1031.0	0.55555556	       
TN1756          	1030.0	0.55555556	       
TN1757          	1033.0	0.66666667	       
TN1758          	1030.0	0.66666667	       
TN1759          	1028.0	0.55555556	       
TN1760          	1027.0	0.66666667	       
TN1761          	1027.0	0.11111111	       
TN1762          	1026.0	0.22222222	       
TN1763          	1025.0	0.22222222	       
TN1764          	1023.0	0.44444444	       
TN1765          	1024.0	0.66666667	       
TN1766          	1023.0	0.11111111	       
TN1767          	1023.0	0.22222222	       
TN1768          	1021.0	0.66666667	       
TN1769          	1022.0	0.11111111	       
TN177           	1040.0	0.375 	2      
TN1770          	1021.0	0.55555556	       
TN1771          	1042.0	0.55555556	       
TN1772          	1042.0	0.11111111	       
TN1773          	1042.0	0.44444444	       
TN1774          	1041.0	0.11111111	       
TN1775          	1042.0	0.44444444	       
TN1776          	1041.0	0.66666667	       
TN1777          	1041.0	0.66666667	       
TN1778          	1041.0	0.22222222	       
TN1779          	1039.0	0.44444444	       
TN1780          	1038.0	0.33333333	       
TN1781          	1040.0	0.44444444	       
TN1782          	1038.0	0.33333333	       
TN1783          	1036.0	0.11111111	       
TN1784          	1035.0	0.44444444	       
TN1785          	1036.0	0.22222222	       
TN1786          	1035.0	0.22222222	       
TN1787          	1033.0	0.22222222	       
TN1788          	1032.0	0.66666667	       
TN1789          	1033.0	0.55555556	       
TN179           	1040.0	0.49999998	2      
TN1790          	1031.0	0.55555556	       
TN1791          	1030.0	0.44444444	       
TN1792          	1029.0	0.22222222	       
TN1793          	1029.0	0.55555556	       
TN1794          	1029.0	0.66666667	       
TN1795          	1028.0	0.44444444	       
TN1796          	1027.0	0.22222222	       
TN1797          	1027.0	0.22222222	       
TN1798          	1026.0	0.44444444	       
TN1799          	1026.0	0.44444444	       
TN1800          	1026.0	0.66666667	       
TN1801          	1025.0	0.22222222	       
TN1802          	1025.0	0.66666667	       
TN1803          	1045.0	0.22222222	       
TN1804          	1045.0	0.22222222	       
TN1805          	1045.0	0.55555556	       